power-flow-agent/results/ieee14/2026-09-23/gpt-5.6-sol/plan_act_nogate__matched/traces/14_case14-multistep-014-s0.transcript.txt
==============================================================================
TRANSCRIPT  plan_act_nogate  |  openrouter:openai/gpt-5.6-sol  |  case14  |  case14-multistep-014-s0  run 0
==============================================================================
date: 2026-09-23   seed: 0   difficulty: multistep   tool variant: load_split

[system]   (hash 7da5e2a37ec4, from methods/plan_act_nogate/method.json prompt_files)
You are a power system power-flow analysis assistant. You help the user complete power system analysis tasks from natural-language requests.

## What you can do
You complete tasks by calling tool functions:
1. Load an IEEE standard test system (14, 30, 57, 118, 300 buses)
2. Run AC power flow
3. Modify the load at a bus and re-solve
4. Disconnect or reconnect a line and re-solve
5. Query the network status
6. Run an N-1 contingency analysis (disconnect branches one at a time and rank the worst cases)
7. Generate remedial-action suggestions (what-if load shedding or voltage adjustment) to reduce violation risk

## Key rules
- Never fabricate any numerical result. Every voltage, power, loss, or loading value must come from a tool return value.
- If a tool reports an error or a non-converged power flow, say so explicitly and do not report numbers for that state.
- If the request is ambiguous, state the interpretation you are using.
- Bus and line identifiers in the request are MATPOWER 1-based ids; pass them to the tools as given, unless the request itself states a different indexing convention for that identifier (e.g. "(0-based)"), in which case convert it to the MATPOWER 1-based id before calling any tool.
- After a network modification, re-solve before reporting any value.
- Always reply in English.

## Reply format
After each analysis, reply in this structure:
1. One-sentence summary
2. Key numbers (total load, total generation, total losses, voltage range) taken from the tool outputs
3. Violations, if any
4. Suggested next step

[user]   (complete message, stored at run time)
Load case14, set the active load at bus 13 to 18.9 MW, set the active load at bus 4 to 59.1 MW, set the active load at bus 9 to 23.2 MW, and finally rerun the power flow, then report the bus with the lowest voltage magnitude.

[tools available to the model]   (function-calling schema, --tool-variant load_split; enum values and defaults as sent)
  load_case(case_name: string* in {case14, case30, case57, case118, case300})  Load IEEE test case.
  run_powerflow()  Run power flow on current case.
  disconnect_line(from_bus: integer*, to_bus: integer*)  Disconnect line/branch between two buses and recompute.
  reconnect_line(from_bus: integer*, to_bus: integer*)  Reconnect line/branch between two buses and recompute.
  get_most_loaded_branch()  Get most loaded branch.
  run_n1_contingency(top_k: integer (default 5), criteria: string in {max_violations, max_overload, min_voltage} (default max_violations), max_candidates: integer (default 0))  Run N-1 contingency analysis.
  recommend_remedial_actions(max_actions: integer (default 5), allow_load_shed: boolean (default True), allow_voltage_control: boolean (default True), include_best_comparison: boolean (default True))  Recommend remedial actions.
  apply_remedial_action(action_index: integer*, confirmed: boolean (default False))  Apply one remedial action by index.
  get_status()  Get current network status.
  generate_plot(plot_type: string* in {voltage_heatmap, flow_diagram, violation_overview, comparison})  Generate one plot.
  set_active_load(bus_id: integer*, p_mw: number*)  Set a bus's active load (MW) and recompute. Use this when the request states only an active-power value. This tool has no reactive-power argument: the bus's present reactive load is always left unchanged. If the request also states a reactive-power value, use set_load instead.
  set_load(bus_id: integer*, p_mw: number*, q_mvar: number*)  Set a bus's active and reactive load (MW, Mvar) and recompute. Use this only when the request states both values. If the request states only an active-power value, use set_active_load instead -- do not invent a reactive-power value here to fill this in.

[planner system prompt]   (hash 76ea681e520a; as assembled today from methods/plan_act; the planning call sends this plus the request)
You are the planner of a power-system analysis agent. You cannot call tools yourself. Given the user's request, output ONLY a JSON object of the form
{"plan": [{"tool": "<tool_name>", "args": {...}}, ...]}
listing, in execution order, every tool call needed to answer the request. Use only the tools below with exactly these argument names (* = required); where an argument lists allowed values, use one of them verbatim. Bus and line identifiers in the request are MATPOWER 1-based ids; pass them to the tools as given, unless the request itself states a different indexing convention for that identifier (e.g. "(0-based)"), in which case convert it to the MATPOWER 1-based id. Do not include explanations, markdown, or any text outside the JSON.

Available tools:
- load_case(case_name: string in {case14, case30, case57, case118, case300}*): Load IEEE test case.
- run_powerflow((none)): Run power flow on current case.
- disconnect_line(from_bus: integer*, to_bus: integer*): Disconnect line/branch between two buses and recompute.
- reconnect_line(from_bus: integer*, to_bus: integer*): Reconnect line/branch between two buses and recompute.
- get_most_loaded_branch((none)): Get most loaded branch.
- run_n1_contingency(top_k: integer, criteria: string in {max_violations, max_overload, min_voltage}, max_candidates: integer): Run N-1 contingency analysis.
- recommend_remedial_actions(max_actions: integer, allow_load_shed: boolean, allow_voltage_control: boolean, include_best_comparison: boolean): Recommend remedial actions.
- apply_remedial_action(action_index: integer*, confirmed: boolean): Apply one remedial action by index.
- get_status((none)): Get current network status.
- generate_plot(plot_type: string in {voltage_heatmap, flow_diagram, violation_overview, comparison}*): Generate one plot.
- set_active_load(bus_id: integer*, p_mw: number*): Set a bus's active load (MW) and recompute. Use this when the request states only an active-power value. This tool has no reactive-power argument: the bus's present reactive load is always left unchanged. If the request also states a reactive-power value, use set_load instead.
- set_load(bus_id: integer*, p_mw: number*, q_mvar: number*): Set a bus's active and reactive load (MW, Mvar) and recompute. Use this only when the request states both values. If the request states only an active-power value, use set_active_load instead -- do not invent a reactive-power value here to fill this in.

[planner output]
[
 {
  "tool": "load_case",
  "args": {
   "case_name": "case14"
  }
 },
 {
  "tool": "set_active_load",
  "args": {
   "bus_id": 13,
   "p_mw": 18.9
  }
 },
 {
  "tool": "set_active_load",
  "args": {
   "bus_id": 4,
   "p_mw": 59.1
  }
 },
 {
  "tool": "set_active_load",
  "args": {
   "bus_id": 9,
   "p_mw": 23.2
  }
 },
 {
  "tool": "run_powerflow",
  "args": {}
 },
 {
  "tool": "get_status",
  "args": {}
 }
]

--- round 1 ---
[assistant]   (647 in / 156 out tokens, 2.9 s)
{"plan":[{"tool":"load_case","args":{"case_name":"case14"}},{"tool":"set_active_load","args":{"bus_id":13,"p_mw":18.9}},{"tool":"set_active_load","args":{"bus_id":4,"p_mw":59.1}},{"tool":"set_active_load","args":{"bus_id":9,"p_mw":23.2}},{"tool":"run_powerflow","args":{}},{"tool":"get_status","args":{}}]}

--- round 2 ---
[tool load_case]   (gate: not applied)
{"case_name": "case14", "n_buses": 14, "n_generators": 5, "n_lines": 20, "n_loads": 11, "total_load_mw": 264.7769230494336, "total_gen_capacity_mw": 772.4000000000001}
[tool set_active_load]   (gate: pass)
{"case_name": "case14", "converged": true, "bus_voltages": [{"bus_id": 1, "vm_pu": 1.06, "va_deg": 0.0, "is_violation": true, "violation_type": "overvoltage"}, {"bus_id": 2, "vm_pu": 1.045, "va_deg": -5.318750568741154, "is_violation": false, "violation_type": null}, {"bus_id": 3, "vm_pu": 1.01, "va_deg": -13.457879742376322, "is_violation": false, "violation_type": null}, {"bus_id": 4, "vm_pu": 1.017336426729523, "va_deg": -10.827700600796387, "is_violation": false, "violation_type": null}, {"bus_id": 5, "vm_pu": 1.0188454962687588, "va_deg": -9.238420255480278, "is_violation": false, "violation_type": null}, {"bus_id": 6, "vm_pu": 1.07, "va_deg": -15.110605420795446, "is_violation": true, "violation_type": "overvoltage"}, {"bus_id": 7, "vm_pu": 1.0623575065932194, "va_deg": -13.905177339712232, "is_violation": true, "violation_type": "overvoltage"}, {"bus_id": 8, "vm_pu": 1.0899999999999999, "va_deg": -13.905177339712234, "is_violation": true, "violation_type": "overvoltage"}, {"bus_id": 9, "vm_pu": 1.0579362605889158, "va_deg": -15.496449999352617, "is_violation": true, "violation_type": "overvoltage"}, {"bus_id": 10, "vm_pu": 1.053214718108663, "va_deg": -15.693330690951912, "is_violation": true, "violation_type": "overvoltage"}, {"bus_id": 11, "vm_pu": 1.0584277633979788, "va_deg": -15.519305993235966, "is_violation": true, "violation_type": "overvoltage"}, {"bus_id": 12, "vm_pu": 1.053882251669825, "va_deg": -16.089589233585155, "is_violation": true, "violation_type": "overvoltage"}, {"bus_id": 13, "vm_pu": 1.04795730390914, "va_deg": -16.236976130242613, "is_violation": false, "violation_type": null}, {"bus_id": 14, "vm_pu": 1.0361789262502736, "va_deg": -16.788216361507107, "is_violation": false, "violation_type": null}], "line_flows": [{"line_id": 0, "from_bus": 1, "to_bus": 2, "p_from_mw": 167.05399545327197, "q_from_mvar": -22.74958714732525, "loading_percent": 1.6065933935799666, "is_violation": false}, {"line_id": 1, "from_bus": 1, "to_bus": 5, "p_from_mw": 79.33978287413545, "q_from_mvar": 3.8558511955241084, "loading_percent": 0.7571243833284381, "is_violation": false}, {"line_id": 2, "from_bus": 2, "to_bus": 3, "p_from_mw": 76.81232975682258, "q_from_mvar": 3.221549152597783, "loading_percent": 0.7432421406807899, "is_violation": false}, {"line_id": 3, "from_bus": 2, "to_bus": 4, "p_from_mw": 57.91445793313578, "q_from_mvar": -1.7630611173536301, "loading_percent": 0.5600627105121659, "is_violation": false}, {"line_id": 4, "from_bus": 2, "to_bus": 5, "p_from_mw": 42.874579544461625, "q_from_mvar": 1.2191701073642103, "loading_percent": 0.41596676722157644, "is_violation": false}, {"line_id": 5, "from_bus": 3, "to_bus": 4, "p_from_mw": -25.156861893856142, "q_from_mvar": 5.504105723118295, "loading_percent": 0.26036798467598404, "is_violation": false}, {"line_id": 6, "from_bus": 4, "to_bus": 5, "p_from_mw": -62.80972160556705, "q_from_mvar": 17.213462392419476, "loading_percent": 0.6466257639181713, "is_violation": false}, {"line_id": 7, "from_bus": 6, "to_bus": 11, "p_from_mw": 5.733752764630256, "q_from_mvar": 3.5018537551648903, "loading_percent": 0.06342442166366907, "is_violation": false}, {"line_id": 8, "from_bus": 6, "to_bus": 12, "p_from_mw": 8.775838537416154, "q_from_mvar": 2.5895046418523933, "loading_percent": 0.08637695906880527, "is_violation": false}, {"line_id": 9, "from_bus": 6, "to_bus": 13, "p_from_mw": 20.82809107238185, "q_from_mvar": 7.695228054755848, "loading_percent": 0.20961188354978494, "is_violation": false}, {"line_id": 10, "from_bus": 9, "to_bus": 10, "p_from_mw": 5.920317714503747, "q_from_mvar": 3.690433289323152, "loading_percent": 0.06660909992333465, "is_violation": false}, {"line_id": 11, "from_bus": 9, "to_bus": 14, "p_from_mw": 10.803006893911848, "q_from_mvar": 3.5375260024477884, "loading_percent": 0.10853469033591234, "is_violation": false}, {"line_id": 12, "from_bus": 10, "to_bus": 11, "p_from_mw": -2.522488270111327, "q_from_mvar": -1.7783164944969918, "loading_percent": 0.02959978170303053, "is_violation": false}, {"line_id": 13, "from_bus": 12, "to_bus": 13, "p_from_mw": 2.1948918656826466, "q_from_mvar": 0.6998680490090665, "loading_percent": 0.022080668458446976, "is_violation": false}, {"line_id": 14, "from_bus": 13, "to_bus": 14, "p_from_mw": 3.827565824308944, "q_from_mvar": 1.6812349562898257, "loading_percent": 0.04029510694990873, "is_violation": false}, {"line_id": 100000, "from_bus": 4, "to_bus": 7, "p_from_mw": 28.370315468216756, "q_from_mvar": -10.249072019260625, "loading_percent": 0.2995031570029095, "is_violation": false}, {"line_id": 100001, "from_bus": 4, "to_bus": 9, "p_from_mw": 16.254820265908734, "q_from_mvar": -0.8575975753460234, "loading_percent": 0.16161660804763353, "is_violation": false}, {"line_id": 100002, "from_bus": 5, "to_bus": 6, "p_from_mw": 47.48514045052688, "q_from_mvar": 12.491031711979167, "loading_percent": 0.486791370433407, "is_violation": false}, {"line_id": 100003, "from_bus": 7, "to_bus": 8, "p_from_mw": 1.174197067590861e-14, "q_from_mvar": -16.671138445442388, "loading_percent": 0.15851098786204612, "is_violation": false}, {"line_id": 100004, "from_bus": 7, "to_bus": 9, "p_from_mw": 28.370315467750423, "q_from_mvar": 4.663549803028031, "loading_percent": 0.2733681963408891, "is_violation": false}], "total_generation_mw": 284.2129560188538, "total_load_mw": 269.3777909886693, "total_loss_mw": 14.835165036608746, "voltage_violations": [{"bus_id": 1, "vm_pu": 1.06, "va_deg": 0.0, "is_violation": true, "violation_type": "overvoltage"}, {"bus_id": 6, "vm_pu": 1.07, "va_deg": -15.110605420795446, "is_violation": true, "violation_type": "overvoltage"}, {"bus_id": 7, "vm_pu": 1.0623575065932194, "va_deg": -13.905177339712232, "is_violation": true, "violation_type": "overvoltage"}, {"bus_id": 8, "vm_pu": 1.0899999999999999, "va_deg": -13.905177339712234, "is_violation": true, "violation_type": "overvoltage"}, {"bus_id": 9, "vm_pu": 1.0579362605889158, "va_deg": -15.496449999352617, "is_violation": true, "violation_type": "overvoltage"}, {"bus_id": 10, "vm_pu": 1.053214718108663, "va_deg": -15.693330690951912, "is_violation": true, "violation_type": "overvoltage"}, {"bus_id": 11, "vm_pu": 1.0584277633979788, "va_deg": -15.519305993235966, "is_violation": true, "violation_type": "overvoltage"}, {"bus_id": 12, "vm_pu": 1.053882251669825, "va_deg": -16.089589233585155, "is_violation": true, "violation_type": "overvoltage"}], "thermal_violations": [], "summary_text": "", "solver_backend": "pandapower", "llm_prompt": null, "llm_response": null, "resolved_bus_id": 13, "assumption": "reactive load at this bus is unchanged from its present value"}
[tool set_active_load]   (gate: pass)
{"case_name": "case14", "converged": true, "bus_voltages": [{"bus_id": 1, "vm_pu": 1.06, "va_deg": 0.0, "is_violation": true, "violation_type": "overvoltage"}, {"bus_id": 2, "vm_pu": 1.0450000000000002, "va_deg": -5.577170283863973, "is_violation": false, "violation_type": null}, {"bus_id": 3, "vm_pu": 1.0099999999999998, "va_deg": -13.90932930493933, "is_violation": false, "violation_type": null}, {"bus_id": 4, "vm_pu": 1.015568980438924, "va_deg": -11.417177446782816, "is_violation": false, "violation_type": null}, {"bus_id": 5, "vm_pu": 1.0175275617382202, "va_deg": -9.69866349235105, "is_violation": false, "violation_type": null}, {"bus_id": 6, "vm_pu": 1.07, "va_deg": -15.626368482388793, "is_violation": true, "violation_type": "overvoltage"}, {"bus_id": 7, "vm_pu": 1.0615086964260703, "va_deg": -14.476585914684618, "is_violation": true, "violation_type": "overvoltage"}, {"bus_id": 8, "vm_pu": 1.09, "va_deg": -14.476585914684613, "is_violation": true, "violation_type": "overvoltage"}, {"bus_id": 9, "vm_pu": 1.0570450957757405, "va_deg": -16.057105198487665, "is_violation": true, "violation_type": "overvoltage"}, {"bus_id": 10, "vm_pu": 1.0524653853327859, "va_deg": -16.245998231112633, "is_violation": true, "violation_type": "overvoltage"}, {"bus_id": 11, "vm_pu": 1.0580330691531679, "va_deg": -16.053426394413727, "is_violation": true, "violation_type": "overvoltage"}, {"bus_id": 12, "vm_pu": 1.053823394026221, "va_deg": -16.609165208664326, "is_violation": true, "violation_type": "overvoltage"}, {"bus_id": 13, "vm_pu": 1.0478152474130253, "va_deg": -16.759079125380765, "is_violation": false, "violation_type": null}, {"bus_id": 14, "vm_pu": 1.0356031082045212, "va_deg": -17.333194974442506, "is_violation": false, "violation_type": null}], "line_flows": [{"line_id": 0, "from_bus": 1, "to_bus": 2, "p_from_mw": 174.8821538696044, "q_from_mvar": -24.511909467814196, "loading_percent": 1.682786576896946, "is_violation": false}, {"line_id": 1, "from_bus": 1, "to_bus": 5, "p_from_mw": 83.1516565785283, "q_from_mvar": 4.189695252536171, "loading_percent": 0.7933785121352254, "is_violation": false}, {"line_id": 2, "from_bus": 2, "to_bus": 3, "p_from_mw": 78.55294964364509, "q_from_mvar": 3.0656843041316475, "loading_percent": 0.7598738493098184, "is_violation": false}, {"line_id": 3, "from_bus": 2, "to_bus": 4, "p_from_mw": 61.35762664904495, "q_from_mvar": -1.5112799456933523, "loading_percent": 0.5932650500405108, "is_violation": false}, {"line_id": 4, "from_bus": 2, "to_bus": 5, "p_from_mw": 45.04470075554772, "q_from_mvar": 1.449646289919548, "loading_percent": 0.43699669062170843, "is_violation": false}, {"line_id": 5, "from_bus": 3, "to_bus": 4, "p_from_mw": -23.53186678504796, "q_from_mvar": 5.845514881727229, "loading_percent": 0.24570506172181006, "is_violation": false}, {"line_id": 6, "from_bus": 4, "to_bus": 5, "p_from_mw": -67.91459997481367, "q_from_mvar": 17.910975119613415, "loading_percent": 0.6985854884469767, "is_violation": false}, {"line_id": 7, "from_bus": 6, "to_bus": 11, "p_from_mw": 5.964095687780277, "q_from_mvar": 3.605512783867231, "loading_percent": 0.06579089491975039, "is_violation": false}, {"line_id": 8, "from_bus": 6, "to_bus": 12, "p_from_mw": 8.80913017108559, "q_from_mvar": 2.5986263817517403, "loading_percent": 0.08670276044323129, "is_violation": false}, {"line_id": 9, "from_bus": 6, "to_bus": 13, "p_from_mw": 20.94981605226098, "q_from_mvar": 7.7519529987658595, "loading_percent": 0.21087538595070252, "is_violation": false}, {"line_id": 10, "from_bus": 9, "to_bus": 10, "p_from_mw": 5.6930419378684505, "q_from_mvar": 3.592958196512196, "loading_percent": 0.0643304516134523, "is_violation": false}, {"line_id": 11, "from_bus": 9, "to_bus": 14, "p_from_mw": 10.650604403322848, "q_from_mvar": 3.4760914146793915, "loading_percent": 0.10705952404519245, "is_violation": false}, {"line_id": 12, "from_bus": 10, "to_bus": 11, "p_from_mw": -2.7488338341394756, "q_from_mvar": -1.8733205730609463, "loading_percent": 0.03192573356147, "is_violation": false}, {"line_id": 13, "from_bus": 12, "to_bus": 13, "p_from_mw": 2.2275042070365583, "q_from_mvar": 0.7075759920832275, "loading_percent": 0.022402178909044414, "is_violation": false}, {"line_id": 14, "from_bus": 13, "to_bus": 14, "p_from_mw": 3.978148956300194, "q_from_mvar": 1.7386043274565273, "loading_percent": 0.041852123595851984, "is_violation": false}, {"line_id": 100000, "from_bus": 4, "to_bus": 7, "p_from_mw": 28.132413581479543, "q_from_mvar": -10.716675647538247, "loading_percent": 0.29942395019883067, "is_violation": false}, {"line_id": 100001, "from_bus": 4, "to_bus": 9, "p_from_mw": 16.11304388543466, "q_from_mvar": -1.040575792535463, "loading_percent": 0.16059673291099433, "is_violation": false}, {"line_id": 100002, "from_bus": 5, "to_bus": 6, "p_from_mw": 47.87049998685377, "q_from_mvar": 11.908449450486762, "loading_percent": 0.48969425946019957, "is_violation": false}, {"line_id": 100003, "from_bus": 7, "to_bus": 8, "p_from_mw": -4.5858953811707995e-14, "q_from_mvar": -17.169325300165458, "loading_percent": 0.1633783395919433, "is_violation": false}, {"line_id": 100004, "from_bus": 7, "to_bus": 9, "p_from_mw": 28.13241358095763, "q_from_mvar": 4.695063023454301, "loading_percent": 0.27140241268456916, "is_violation": false}], "total_generation_mw": 295.852988139579, "total_load_mw": 279.76105523981886, "total_loss_mw": 16.091932908382976, "voltage_violations": [{"bus_id": 1, "vm_pu": 1.06, "va_deg": 0.0, "is_violation": true, "violation_type": "overvoltage"}, {"bus_id": 6, "vm_pu": 1.07, "va_deg": -15.626368482388793, "is_violation": true, "violation_type": "overvoltage"}, {"bus_id": 7, "vm_pu": 1.0615086964260703, "va_deg": -14.476585914684618, "is_violation": true, "violation_type": "overvoltage"}, {"bus_id": 8, "vm_pu": 1.09, "va_deg": -14.476585914684613, "is_violation": true, "violation_type": "overvoltage"}, {"bus_id": 9, "vm_pu": 1.0570450957757405, "va_deg": -16.057105198487665, "is_violation": true, "violation_type": "overvoltage"}, {"bus_id": 10, "vm_pu": 1.0524653853327859, "va_deg": -16.245998231112633, "is_violation": true, "violation_type": "overvoltage"}, {"bus_id": 11, "vm_pu": 1.0580330691531679, "va_deg": -16.053426394413727, "is_violation": true, "violation_type": "overvoltage"}, {"bus_id": 12, "vm_pu": 1.053823394026221, "va_deg": -16.609165208664326, "is_violation": true, "violation_type": "overvoltage"}], "thermal_violations": [], "summary_text": "", "solver_backend": "pandapower", "llm_prompt": null, "llm_response": null, "resolved_bus_id": 4, "assumption": "reactive load at this bus is unchanged from its present value"}
[tool set_active_load]   (gate: pass)
{"case_name": "case14", "converged": true, "bus_voltages": [{"bus_id": 1, "vm_pu": 1.06, "va_deg": 0.0, "is_violation": true, "violation_type": "overvoltage"}, {"bus_id": 2, "vm_pu": 1.0449999999999997, "va_deg": -5.462286754500547, "is_violation": false, "violation_type": null}, {"bus_id": 3, "vm_pu": 1.01, "va_deg": -13.712787908872786, "is_violation": false, "violation_type": null}, {"bus_id": 4, "vm_pu": 1.0165550190238202, "va_deg": -11.168201097191169, "is_violation": false, "violation_type": null}, {"bus_id": 5, "vm_pu": 1.0183669856477982, "va_deg": -9.483424916708667, "is_violation": false, "violation_type": null}, {"bus_id": 6, "vm_pu": 1.0699999999999998, "va_deg": -15.233569373328589, "is_violation": true, "violation_type": "overvoltage"}, {"bus_id": 7, "vm_pu": 1.062411509595682, "va_deg": -13.992020954746701, "is_violation": true, "violation_type": "overvoltage"}, {"bus_id": 8, "vm_pu": 1.0900000000000005, "va_deg": -13.992020954746705, "is_violation": true, "violation_type": "overvoltage"}, {"bus_id": 9, "vm_pu": 1.058282415602016, "va_deg": -15.450617280291077, "is_violation": true, "violation_type": "overvoltage"}, {"bus_id": 10, "vm_pu": 1.0535335115617828, "va_deg": -15.677038872486612, "is_violation": true, "violation_type": "overvoltage"}, {"bus_id": 11, "vm_pu": 1.0586246790510565, "va_deg": -15.571487205409804, "is_violation": true, "violation_type": "overvoltage"}, {"bus_id": 12, "vm_pu": 1.0538810381672492, "va_deg": -16.20059263473692, "is_violation": true, "violation_type": "overvoltage"}, {"bus_id": 13, "vm_pu": 1.0480392814775468, "va_deg": -16.33599218338997, "is_violation": false, "violation_type": null}, {"bus_id": 14, "vm_pu": 1.036416073560693, "va_deg": -16.804655111027365, "is_violation": false, "violation_type": null}], "line_flows": [{"line_id": 0, "from_bus": 1, "to_bus": 2, "p_from_mw": 171.40107281271992, "q_from_mvar": -23.73280753496502, "loading_percent": 1.6489073468479931, "is_violation": false}, {"line_id": 1, "from_bus": 1, "to_bus": 5, "p_from_mw": 81.36249935671522, "q_from_mvar": 3.9269449248905333, "loading_percent": 0.7762413824730972, "is_violation": false}, {"line_id": 2, "from_bus": 2, "to_bus": 3, "p_from_mw": 77.81654713055359, "q_from_mvar": 3.1309045186715867, "loading_percent": 0.752786300732857, "is_violation": false}, {"line_id": 3, "from_bus": 2, "to_bus": 4, "p_from_mw": 59.930840053069176, "q_from_mvar": -1.7642473015515496, "loading_percent": 0.5795447531114827, "is_violation": false}, {"line_id": 4, "from_bus": 2, "to_bus": 5, "p_from_mw": 43.940410598219515, "q_from_mvar": 1.23203991765794, "loading_percent": 0.42618462154580866, "is_violation": false}, {"line_id": 5, "from_bus": 3, "to_bus": 4, "p_from_mw": -24.219027834058203, "q_from_mvar": 5.557142095191355, "loading_percent": 0.2514803788441621, "is_violation": false}, {"line_id": 6, "from_bus": 4, "to_bus": 5, "p_from_mw": -66.63112130498374, "q_from_mvar": 17.8124235882675, "loading_percent": 0.6853303721639923, "is_violation": false}, {"line_id": 7, "from_bus": 6, "to_bus": 11, "p_from_mw": 5.118496628290301, "q_from_mvar": 3.6851410541658955, "loading_percent": 0.05954008425793357, "is_violation": false}, {"line_id": 8, "from_bus": 6, "to_bus": 12, "p_from_mw": 8.700668637791935, "q_from_mvar": 2.624566682919407, "loading_percent": 0.08579159090430291, "is_violation": false}, {"line_id": 9, "from_bus": 6, "to_bus": 13, "p_from_mw": 20.513151731845657, "q_from_mvar": 7.78083295260733, "loading_percent": 0.2071108418567931, "is_violation": false}, {"line_id": 10, "from_bus": 9, "to_bus": 10, "p_from_mw": 6.531430527223944, "q_from_mvar": 3.499099894156511, "loading_percent": 0.07072327927944197, "is_violation": false}, {"line_id": 11, "from_bus": 9, "to_bus": 14, "p_from_mw": 11.189599092103755, "q_from_mvar": 3.4114705324591696, "loading_percent": 0.11165498137290066, "is_violation": false}, {"line_id": 12, "from_bus": 10, "to_bus": 11, "p_from_mw": -1.913136988076885, "q_from_mvar": -1.97432921524423, "loading_percent": 0.02635857190363726, "is_violation": false}, {"line_id": 13, "from_bus": 12, "to_bus": 13, "p_from_mw": 2.1209360271175752, "q_from_mvar": 0.737456889842512, "loading_percent": 0.021522057054492946, "is_violation": false}, {"line_id": 14, "from_bus": 13, "to_bus": 14, "p_from_mw": 3.445955256128862, "q_from_mvar": 1.818212938644162, "loading_percent": 0.03755176612205618, "is_violation": false}, {"line_id": 100000, "from_bus": 4, "to_bus": 7, "p_from_mw": 26.0152350891122, "q_from_mvar": -10.78547701513484, "loading_percent": 0.2798356786206789, "is_violation": false}, {"line_id": 100001, "from_bus": 4, "to_bus": 9, "p_from_mw": 14.905794530266062, "q_from_mvar": -1.1791512471330206, "loading_percent": 0.1485743020594329, "is_violation": false}, {"line_id": 100002, "from_bus": 5, "to_bus": 6, "p_from_mw": 46.47977507386475, "q_from_mvar": 12.162513684829515, "loading_percent": 0.4765475762294225, "is_violation": false}, {"line_id": 100003, "from_bus": 7, "to_bus": 8, "p_from_mw": 1.744951528990055e-14, "q_from_mvar": -16.639415122292245, "loading_percent": 0.15820131719877342, "is_violation": false}, {"line_id": 100004, "from_bus": 7, "to_bus": 9, "p_from_mw": 26.01523508860368, "q_from_mvar": 4.3187915603791645, "loading_percent": 0.25072823935265137, "is_violation": false}], "total_generation_mw": 290.5827498608815, "total_load_mw": 275.0592441140777, "total_loss_mw": 15.523505754195478, "voltage_violations": [{"bus_id": 1, "vm_pu": 1.06, "va_deg": 0.0, "is_violation": true, "violation_type": "overvoltage"}, {"bus_id": 6, "vm_pu": 1.0699999999999998, "va_deg": -15.233569373328589, "is_violation": true, "violation_type": "overvoltage"}, {"bus_id": 7, "vm_pu": 1.062411509595682, "va_deg": -13.992020954746701, "is_violation": true, "violation_type": "overvoltage"}, {"bus_id": 8, "vm_pu": 1.0900000000000005, "va_deg": -13.992020954746705, "is_violation": true, "violation_type": "overvoltage"}, {"bus_id": 9, "vm_pu": 1.058282415602016, "va_deg": -15.450617280291077, "is_violation": true, "violation_type": "overvoltage"}, {"bus_id": 10, "vm_pu": 1.0535335115617828, "va_deg": -15.677038872486612, "is_violation": true, "violation_type": "overvoltage"}, {"bus_id": 11, "vm_pu": 1.0586246790510565, "va_deg": -15.571487205409804, "is_violation": true, "violation_type": "overvoltage"}, {"bus_id": 12, "vm_pu": 1.0538810381672492, "va_deg": -16.20059263473692, "is_violation": true, "violation_type": "overvoltage"}], "thermal_violations": [], "summary_text": "", "solver_backend": "pandapower", "llm_prompt": null, "llm_response": null, "resolved_bus_id": 9, "assumption": "reactive load at this bus is unchanged from its present value"}
[tool run_powerflow]   (gate: pass)
{"case_name": "case14", "converged": true, "bus_voltages": [{"bus_id": 1, "vm_pu": 1.06, "va_deg": 0.0, "is_violation": true, "violation_type": "overvoltage"}, {"bus_id": 2, "vm_pu": 1.0449999999999997, "va_deg": -5.462286754500547, "is_violation": false, "violation_type": null}, {"bus_id": 3, "vm_pu": 1.01, "va_deg": -13.712787908872786, "is_violation": false, "violation_type": null}, {"bus_id": 4, "vm_pu": 1.0165550190238202, "va_deg": -11.168201097191169, "is_violation": false, "violation_type": null}, {"bus_id": 5, "vm_pu": 1.0183669856477982, "va_deg": -9.483424916708667, "is_violation": false, "violation_type": null}, {"bus_id": 6, "vm_pu": 1.0699999999999998, "va_deg": -15.233569373328589, "is_violation": true, "violation_type": "overvoltage"}, {"bus_id": 7, "vm_pu": 1.062411509595682, "va_deg": -13.992020954746701, "is_violation": true, "violation_type": "overvoltage"}, {"bus_id": 8, "vm_pu": 1.0900000000000005, "va_deg": -13.992020954746705, "is_violation": true, "violation_type": "overvoltage"}, {"bus_id": 9, "vm_pu": 1.058282415602016, "va_deg": -15.450617280291077, "is_violation": true, "violation_type": "overvoltage"}, {"bus_id": 10, "vm_pu": 1.0535335115617828, "va_deg": -15.677038872486612, "is_violation": true, "violation_type": "overvoltage"}, {"bus_id": 11, "vm_pu": 1.0586246790510565, "va_deg": -15.571487205409804, "is_violation": true, "violation_type": "overvoltage"}, {"bus_id": 12, "vm_pu": 1.0538810381672492, "va_deg": -16.20059263473692, "is_violation": true, "violation_type": "overvoltage"}, {"bus_id": 13, "vm_pu": 1.0480392814775468, "va_deg": -16.33599218338997, "is_violation": false, "violation_type": null}, {"bus_id": 14, "vm_pu": 1.036416073560693, "va_deg": -16.804655111027365, "is_violation": false, "violation_type": null}], "line_flows": [{"line_id": 0, "from_bus": 1, "to_bus": 2, "p_from_mw": 171.40107281271992, "q_from_mvar": -23.73280753496502, "loading_percent": 1.6489073468479931, "is_violation": false}, {"line_id": 1, "from_bus": 1, "to_bus": 5, "p_from_mw": 81.36249935671522, "q_from_mvar": 3.9269449248905333, "loading_percent": 0.7762413824730972, "is_violation": false}, {"line_id": 2, "from_bus": 2, "to_bus": 3, "p_from_mw": 77.81654713055359, "q_from_mvar": 3.1309045186715867, "loading_percent": 0.752786300732857, "is_violation": false}, {"line_id": 3, "from_bus": 2, "to_bus": 4, "p_from_mw": 59.930840053069176, "q_from_mvar": -1.7642473015515496, "loading_percent": 0.5795447531114827, "is_violation": false}, {"line_id": 4, "from_bus": 2, "to_bus": 5, "p_from_mw": 43.940410598219515, "q_from_mvar": 1.23203991765794, "loading_percent": 0.42618462154580866, "is_violation": false}, {"line_id": 5, "from_bus": 3, "to_bus": 4, "p_from_mw": -24.219027834058203, "q_from_mvar": 5.557142095191355, "loading_percent": 0.2514803788441621, "is_violation": false}, {"line_id": 6, "from_bus": 4, "to_bus": 5, "p_from_mw": -66.63112130498374, "q_from_mvar": 17.8124235882675, "loading_percent": 0.6853303721639923, "is_violation": false}, {"line_id": 7, "from_bus": 6, "to_bus": 11, "p_from_mw": 5.118496628290301, "q_from_mvar": 3.6851410541658955, "loading_percent": 0.05954008425793357, "is_violation": false}, {"line_id": 8, "from_bus": 6, "to_bus": 12, "p_from_mw": 8.700668637791935, "q_from_mvar": 2.624566682919407, "loading_percent": 0.08579159090430291, "is_violation": false}, {"line_id": 9, "from_bus": 6, "to_bus": 13, "p_from_mw": 20.513151731845657, "q_from_mvar": 7.78083295260733, "loading_percent": 0.2071108418567931, "is_violation": false}, {"line_id": 10, "from_bus": 9, "to_bus": 10, "p_from_mw": 6.531430527223944, "q_from_mvar": 3.499099894156511, "loading_percent": 0.07072327927944197, "is_violation": false}, {"line_id": 11, "from_bus": 9, "to_bus": 14, "p_from_mw": 11.189599092103755, "q_from_mvar": 3.4114705324591696, "loading_percent": 0.11165498137290066, "is_violation": false}, {"line_id": 12, "from_bus": 10, "to_bus": 11, "p_from_mw": -1.913136988076885, "q_from_mvar": -1.97432921524423, "loading_percent": 0.02635857190363726, "is_violation": false}, {"line_id": 13, "from_bus": 12, "to_bus": 13, "p_from_mw": 2.1209360271175752, "q_from_mvar": 0.737456889842512, "loading_percent": 0.021522057054492946, "is_violation": false}, {"line_id": 14, "from_bus": 13, "to_bus": 14, "p_from_mw": 3.445955256128862, "q_from_mvar": 1.818212938644162, "loading_percent": 0.03755176612205618, "is_violation": false}, {"line_id": 100000, "from_bus": 4, "to_bus": 7, "p_from_mw": 26.0152350891122, "q_from_mvar": -10.78547701513484, "loading_percent": 0.2798356786206789, "is_violation": false}, {"line_id": 100001, "from_bus": 4, "to_bus": 9, "p_from_mw": 14.905794530266062, "q_from_mvar": -1.1791512471330206, "loading_percent": 0.1485743020594329, "is_violation": false}, {"line_id": 100002, "from_bus": 5, "to_bus": 6, "p_from_mw": 46.47977507386475, "q_from_mvar": 12.162513684829515, "loading_percent": 0.4765475762294225, "is_violation": false}, {"line_id": 100003, "from_bus": 7, "to_bus": 8, "p_from_mw": 1.744951528990055e-14, "q_from_mvar": -16.639415122292245, "loading_percent": 0.15820131719877342, "is_violation": false}, {"line_id": 100004, "from_bus": 7, "to_bus": 9, "p_from_mw": 26.01523508860368, "q_from_mvar": 4.3187915603791645, "loading_percent": 0.25072823935265137, "is_violation": false}], "total_generation_mw": 290.5827498608815, "total_load_mw": 275.0592441140777, "total_loss_mw": 15.523505754195478, "voltage_violations": [{"bus_id": 1, "vm_pu": 1.06, "va_deg": 0.0, "is_violation": true, "violation_type": "overvoltage"}, {"bus_id": 6, "vm_pu": 1.0699999999999998, "va_deg": -15.233569373328589, "is_violation": true, "violation_type": "overvoltage"}, {"bus_id": 7, "vm_pu": 1.062411509595682, "va_deg": -13.992020954746701, "is_violation": true, "violation_type": "overvoltage"}, {"bus_id": 8, "vm_pu": 1.0900000000000005, "va_deg": -13.992020954746705, "is_violation": true, "violation_type": "overvoltage"}, {"bus_id": 9, "vm_pu": 1.058282415602016, "va_deg": -15.450617280291077, "is_violation": true, "violation_type": "overvoltage"}, {"bus_id": 10, "vm_pu": 1.0535335115617828, "va_deg": -15.677038872486612, "is_violation": true, "violation_type": "overvoltage"}, {"bus_id": 11, "vm_pu": 1.0586246790510565, "va_deg": -15.571487205409804, "is_violation": true, "violation_type": "overvoltage"}, {"bus_id": 12, "vm_pu": 1.0538810381672492, "va_deg": -16.20059263473692, "is_violation": true, "violation_type": "overvoltage"}], "thermal_violations": [], "summary_text": "", "solver_backend": "pandapower", "llm_prompt": null, "llm_response": null}
[tool get_status]   (gate: not applied)
{"active_case": "case14", "network_info": {"case_name": "case14", "n_buses": 14, "n_generators": 5, "n_lines": 20, "n_loads": 11, "total_load_mw": 275.0592441140777, "total_gen_capacity_mw": 772.4000000000001}, "has_last_result": true, "last_result_summary": {"converged": true, "total_load_mw": 275.0592441140777, "total_generation_mw": 290.5827498608815, "total_loss_mw": 15.523505754195478, "n_voltage_violations": 8, "n_thermal_violations": 0, "solver_backend": "pandapower"}}

--- round 3 ---
[assistant final]   (11742 in / 288 out tokens, 4.1 s)
1. **Summary:** The modified IEEE 14-bus power flow converged; **bus 3 has the lowest voltage magnitude at 1.0100 p.u.**

2. **Key numbers:**
   - Total load: **275.059 MW**
   - Total generation: **290.583 MW**
   - Total active-power losses: **15.524 MW**
   - Voltage range: **1.0100–1.0900 p.u.**

3. **Violations:** Overvoltage violations were reported at buses **1, 6, 7, 8, 9, 10, 11, and 12**. No thermal violations were reported.

4. **Suggested next step:** Review generator voltage setpoints or reactive-power controls to address the reported overvoltages.
